[OPTIONS]
FLOW_UNITS           CMS
START_DATE           12/25/2022
START_TIME           13:00:00
REPORT_START_DATE    12/25/2022
REPORT_START_TIME    13:00:00
END_DATE             12/25/2022
END_TIME             13:40:00
SWEEP_START          01/01
SWEEP_END            12/31
DRY_DAYS             0
REPORT_STEP          00:10:00
WET_STEP             00:05:00
DRY_STEP             01:00:00
ROUTING_STEP         00:05:00
ALLOW_PONDING        NO
INERTIAL_DAMPING     NONE
FORCE_MAIN_EQUATION  H-W
LINK_OFFSETS         DEPTH
MIN_SLOPE            0

[SUBCATCHMENTS]
;;Name           Raingage         Outlet          Area       %Imperv   Width     Slope     CurbLen   SnowPack
S1          R939          J19         25.226     0.99       500       0.12      0        
S2          R939          J33         0.777     0.91       500       0.09      0        
S3          R939          J26         0.207     0.91       500       0.02      0        
S4          R939          J26         0.205     0.91       500       0.05      0        
S5          R939          J1         0.299     0.91       500       0.05      0        
S6          R939          J1         0.824     0.91       500       0.02      0        
S7          R939          J8         0.155     0.91       500       0.01      0        
S8          R939          J14         0.487     0.91       500       0.04      0        
S9          R939          J20         0.602     0.91       500       0.01      0        
S10          R939          J20         0.141     0.91       500       0.00      0        
S11          R939          J20         1.463     0.91       500       0.01      0        
S12          R939          J20         0.868     0.91       500       0.01      0        
S13          R939          J21         0.844     0.91       500       0.00      0        
S14          R939          J21         0.803     0.84       500       0.01      0        
S15          R939          J22         0.750     0.84       500       0.06      0        
S16          R939          J23         1.766     0.77       500       0.10      0        
S17          R939          J25         3.405     0.77       500       0.01      0        
S18          R939          J24         0.129     0.77       500       0.05      0        
S19          R939          J24         0.240     0.77       500       0.00      0        
S20          R939          J24         0.102     0.77       500       0.04      0        
S21          R939          J7         1.658     0.77       500       0.03      0        
S22          R939          J13         0.033     0.77       500       0.08      0        
S23          R939          J13         0.039     0.77       500       0.03      0        
S24          R939          J6         0.049     0.77       500       0.02      0        
S25          R939          J6         0.059     0.77       500       0.01      0        
S26          R939          J6         0.069     0.77       500       0.01      0        
S27          R939          J19         0.831     0.77       500       0.33      0        
S28          R939          J19         0.888     0.77       500       0.01      0        
S29          R939          J19         0.092     0.77       500       0.05      0        
S30          R939          J31         6.370     0.77       500       0.02      0        
S31          R939          J29         1.355     0.80       500       0.01      0        
S32          R939          J29         0.417     0.80       500       0.01      0        
S33          R939          J29         0.311     0.94       500       0.02      0        
S34          R939          J27         0.329     0.94       500       0.02      0        
S35          R939          J32         0.402     0.91       500       0.06      0        
S36          R939          J32         0.165     0.91       500       0.05      0        
S37          R939          J33         0.360     0.91       500       0.05      0        
S38          R939          J33         0.016     0.91       500       0.02      0        
S39          R939          J33         0.410     0.91       500       0.08      0        
S40          R939          J32         0.141     0.91       500       0.04      0        
S41          R939          J32         0.227     0.91       500       0.07      0        
S42          R939          J26         0.316     0.91       500       0.08      0        
S43          R939          J26         0.720     0.91       500       0.06      0        
S44          R939          J2         0.522     0.91       500       0.04      0        
S45          R939          J2         0.053     0.91       500       0.01      0        
S46          R939          J27         0.484     0.91       500       0.02      0        
S47          R939          J28         0.978     0.91       500       0.02      0        
S48          R939          J2         1.130     0.91       500       0.02      0        
S49          R939          J8         0.687     0.91       500       0.03      0        
S50          R939          J14         0.566     0.91       500       0.04      0        
S51          R939          J14         0.334     0.91       500       0.02      0        
S52          R939          J20         0.885     0.91       500       0.02      0        
S53          R939          J15         1.218     0.91       500       0.02      0        
S54          R939          J27         0.457     0.91       500       0.02      0        
S55          R939          J3         0.038     0.91       500       0.02      0        
S56          R939          J3         0.038     0.91       500       0.02      0        
S57          R939          J28         0.517     0.91       500       0.02      0        
S58          R939          J8         0.664     0.91       500       0.01      0        
S59          R939          J15         0.645     0.91       500       0.01      0        
S60          R939          J6         0.393     0.77       500       0.03      0        
S61          R939          J13         0.328     0.77       500       0.00      0        
S62          R939          J7         5.359     0.77       500       0.01      0        
S63          R939          J6         0.940     0.77       500       0.01      0        
S64          R939          J5         2.545     0.77       500       0.02      0        
S65          R939          J5         0.406     0.77       500       0.01      0        
S66          R939          J11         0.655     0.77       500       0.01      0        
S67          R939          J4         1.224     0.77       500       0.01      0        
S68          R939          J4         1.435     0.77       500       0.03      0        
S69          R939          J17         2.485     0.77       500       0.00      0        
S70          R939          J22         2.617     0.77       500       0.07      0        
S71          R939          J16         1.471     0.91       500       0.01      0        
S72          R939          J13         0.496     0.77       500       0.01      0        
S73          R939          J12         2.096     0.77       500       0.01      0        
S74          R939          J11         0.658     0.77       500       0.00      0        
S75          R939          J18         0.067     0.77       500       0.02      0        
S76          R939          J11         1.321     0.77       500       0.02      0        
S77          R939          J10         1.069     0.77       500       0.01      0        
S78          R939          J10         0.775     0.77       500       0.01      0        
S79          R939          J15         0.679     0.91       500       0.01      0        
S80          R939          J6         0.276     0.77       500       0.04      0        
S81          R939          J5         1.131     0.77       500       0.01      0        
S82          R939          J4         1.104     0.77       500       0.01      0        
S83          R939          J4         0.710     0.77       500       0.01      0        
S84          R939          J4         0.464     0.91       500       0.01      0        
S85          R939          J9         1.236     0.91       500       0.03      0        
S86          R939          J1         1.157     0.91       500       0.00      0        
S87          R939          J8         1.242     0.91       500       0.02      0        
S88          R939          J14         0.224     0.91       500       0.02      0        
S89          R939          J20         1.011     0.91       500       0.01      0        
S90          R939          J33         0.491     0.91       500       0.00      0        
S91          R939          J14         0.165     0.91       500       0.03      0        

[SUBAREAS]
;;Subcatchment     N-Imperv   N-Perv     S-Imperv    S-Perv     PctZero    RouteTo     PctRouted
S1          0.0120       0.0000       0.05        0.05       25         OUTLET      100
S2          0.0000       0.0200       0.05        0.05       25         OUTLET      100
S3          0.0150       0.0000       0.05        0.05       25         OUTLET      100
S4          0.0150       0.0000       0.05        0.05       25         OUTLET      100
S5          0.0150       0.0000       0.05        0.05       25         OUTLET      100
S6          0.0250       0.0000       0.05        0.05       25         OUTLET      100
S7          0.0250       0.0000       0.05        0.05       25         OUTLET      100
S8          0.0150       0.0000       0.05        0.05       25         OUTLET      100
S9          0.0250       0.0000       0.05        0.05       25         OUTLET      100
S10          0.0150       0.0000       0.05        0.05       25         OUTLET      100
S11          0.0000       0.0200       0.05        0.05       25         OUTLET      100
S12          0.0150       0.0000       0.05        0.05       25         OUTLET      100
S13          0.0150       0.0000       0.05        0.05       25         OUTLET      100
S14          0.0150       0.0000       0.05        0.05       25         OUTLET      100
S15          0.0150       0.0000       0.05        0.05       25         OUTLET      100
S16          0.0000       0.0200       0.05        0.05       25         OUTLET      100
S17          0.0000       0.0200       0.05        0.05       25         OUTLET      100
S18          0.0000       0.0200       0.05        0.05       25         OUTLET      100
S19          0.0000       0.0200       0.05        0.05       25         OUTLET      100
S20          0.0000       0.0200       0.05        0.05       25         OUTLET      100
S21          0.0000       0.0200       0.05        0.05       25         OUTLET      100
S22          0.0000       0.0200       0.05        0.05       25         OUTLET      100
S23          0.0250       0.0000       0.05        0.05       25         OUTLET      100
S24          0.0150       0.0000       0.05        0.05       25         OUTLET      100
S25          0.0250       0.0000       0.05        0.05       25         OUTLET      100
S26          0.0150       0.0000       0.05        0.05       25         OUTLET      100
S27          0.0000       0.0200       0.05        0.05       25         OUTLET      100
S28          0.0000       0.0200       0.05        0.05       25         OUTLET      100
S29          0.0000       0.0200       0.05        0.05       25         OUTLET      100
S30          0.0000       0.0200       0.05        0.05       25         OUTLET      100
S31          0.0400       0.0000       0.05        0.05       25         OUTLET      100
S32          0.0150       0.0000       0.05        0.05       25         OUTLET      100
S33          0.0150       0.0000       0.05        0.05       25         OUTLET      100
S34          0.0150       0.0000       0.05        0.05       25         OUTLET      100
S35          0.0150       0.0000       0.05        0.05       25         OUTLET      100
S36          0.0150       0.0000       0.05        0.05       25         OUTLET      100
S37          0.0250       0.0000       0.05        0.05       25         OUTLET      100
S38          0.0250       0.0000       0.05        0.05       25         OUTLET      100
S39          0.0150       0.0000       0.05        0.05       25         OUTLET      100
S40          0.0150       0.0000       0.05        0.05       25         OUTLET      100
S41          0.0150       0.0000       0.05        0.05       25         OUTLET      100
S42          0.0150       0.0000       0.05        0.05       25         OUTLET      100
S43          0.0150       0.0000       0.05        0.05       25         OUTLET      100
S44          0.0150       0.0000       0.05        0.05       25         OUTLET      100
S45          0.0150       0.0000       0.05        0.05       25         OUTLET      100
S46          0.0150       0.0000       0.05        0.05       25         OUTLET      100
S47          0.0150       0.0000       0.05        0.05       25         OUTLET      100
S48          0.0150       0.0000       0.05        0.05       25         OUTLET      100
S49          0.0150       0.0000       0.05        0.05       25         OUTLET      100
S50          0.0250       0.0000       0.05        0.05       25         OUTLET      100
S51          0.0150       0.0000       0.05        0.05       25         OUTLET      100
S52          0.0150       0.0000       0.05        0.05       25         OUTLET      100
S53          0.0000       0.0200       0.05        0.05       25         OUTLET      100
S54          0.0000       0.0200       0.05        0.05       25         OUTLET      100
S55          0.0150       0.0000       0.05        0.05       25         OUTLET      100
S56          0.0000       0.0200       0.05        0.05       25         OUTLET      100
S57          0.0150       0.0000       0.05        0.05       25         OUTLET      100
S58          0.0150       0.0000       0.05        0.05       25         OUTLET      100
S59          0.0150       0.0000       0.05        0.05       25         OUTLET      100
S60          0.0000       0.0200       0.05        0.05       25         OUTLET      100
S61          0.0000       0.0200       0.05        0.05       25         OUTLET      100
S62          0.0000       0.0200       0.05        0.05       25         OUTLET      100
S63          0.0150       0.0000       0.05        0.05       25         OUTLET      100
S64          0.0150       0.0000       0.05        0.05       25         OUTLET      100
S65          0.0150       0.0000       0.05        0.05       25         OUTLET      100
S66          0.0150       0.0000       0.05        0.05       25         OUTLET      100
S67          0.0150       0.0000       0.05        0.05       25         OUTLET      100
S68          0.0150       0.0000       0.05        0.05       25         OUTLET      100
S69          0.0000       0.0200       0.05        0.05       25         OUTLET      100
S70          0.0000       0.0200       0.05        0.05       25         OUTLET      100
S71          0.0150       0.0000       0.05        0.05       25         OUTLET      100
S72          0.0000       0.0200       0.05        0.05       25         OUTLET      100
S73          0.0400       0.0000       0.05        0.05       25         OUTLET      100
S74          0.0000       0.0200       0.05        0.05       25         OUTLET      100
S75          0.0300       0.0000       0.05        0.05       25         OUTLET      100
S76          0.0150       0.0000       0.05        0.05       25         OUTLET      100
S77          0.0250       0.0000       0.05        0.05       25         OUTLET      100
S78          0.0150       0.0000       0.05        0.05       25         OUTLET      100
S79          0.0150       0.0000       0.05        0.05       25         OUTLET      100
S80          0.0000       0.0200       0.05        0.05       25         OUTLET      100
S81          0.0150       0.0000       0.05        0.05       25         OUTLET      100
S82          0.0150       0.0000       0.05        0.05       25         OUTLET      100
S83          0.0150       0.0000       0.05        0.05       25         OUTLET      100
S84          0.0150       0.0000       0.05        0.05       25         OUTLET      100
S85          0.0000       0.0200       0.05        0.05       25         OUTLET      100
S86          0.0150       0.0000       0.05        0.05       25         OUTLET      100
S87          0.0150       0.0000       0.05        0.05       25         OUTLET      100
S88          0.0250       0.0000       0.05        0.05       25         OUTLET      100
S89          0.0400       0.0000       0.05        0.05       25         OUTLET      100
S90          0.0150       0.0000       0.05        0.05       25         OUTLET      100
S91          0.0300       0.0000       0.05        0.05       25         OUTLET      100

[POLYGONS]
;;Subcatchment     X-Coord         Y-Coord
S1         201835.202           544560.572
S1         201831.566           544481.899
S1         201831.134           544473.056
S1         201827.539           544403.704
S1         201824.204           544349.571
S1         201824.823           544325.860
S1         201821.522           544291.825
S1         201821.421           544290.297
S1         201821.439           544290.306
S1         201823.174           544291.204
S1         201824.635           544291.086
S1         201825.434           544291.022
S1         201825.865           544298.117
S1         201827.356           544329.447
S1         201829.336           544361.500
S1         201830.828           544394.068
S1         201832.745           544427.496
S1         201833.749           544459.341
S1         201835.549           544495.852
S1         201835.826           544502.102
S1         201836.252           544515.215
S1         201836.493           544528.367
S1         201836.863           544556.581
S1         201836.953           544560.572
S1         201873.879           544560.572
S1         201873.767           544559.565
S1         201872.628           544550.427
S1         201871.240           544530.626
S1         201870.843           544521.543
S1         201870.703           544518.332
S1         201870.069           544503.796
S1         201869.912           544501.415
S1         201868.538           544480.570
S1         201868.432           544478.961
S1         201868.125           544474.302
S1         201867.421           544457.393
S1         201865.931           544432.251
S1         201865.597           544425.670
S1         201865.471           544423.199
S1         201864.432           544402.766
S1         201863.133           544380.305
S1         201862.189           544365.555
S1         201862.001           544362.611
S1         201860.891           544345.271
S1         201859.449           544315.786
S1         201859.321           544313.184
S1         201858.973           544306.067
S1         201858.465           544290.311
S1         201858.412           544289.311
S1         201858.363           544288.401
S1         201870.293           544288.166
S1         201874.534           544284.175
S1         201875.204           544283.910
S1         201925.251           544284.903
S1         201998.936           544286.638
S1         202035.472           544287.454
S1         202052.877           544287.386
S1         202100.602           544288.189
S1         202101.072           544288.194
S1         202108.970           544299.213
S1         202107.752           544321.397
S1         202107.446           544327.012
S1         202107.670           544344.943
S1         202107.348           544358.363
S1         202106.691           544383.198
S1         202106.418           544423.962
S1         202105.951           544452.414
S1         202075.410           544452.626
S1         202058.977           544451.727
S1         202026.990           544451.493
S1         201992.697           544451.012
S1         201964.495           544451.358
S1         201952.294           544455.639
S1         201939.494           544460.702
S1         201939.368           544460.737
S1         201947.687           544470.788
S1         201948.350           544470.153
S1         201954.011           544467.199
S1         201956.384           544466.527
S1         201958.630           544465.943
S1         201961.951           544465.331
S1         202045.751           544465.937
S1         202064.236           544466.194
S1         202079.497           544466.409
S1         202093.321           544466.716
S1         202105.294           544467.011
S1         202104.202           544560.572
S1         202123.766           544560.572
S1         202124.047           544543.308
S1         202124.371           544536.151
S1         202124.463           544530.223
S1         202124.629           544470.988
S1         202129.038           544466.774
S1         202267.552           544468.900
S1         202271.007           544472.738
S1         202270.283           544560.572
S1         202280.071           544560.572
S1         202280.109           544557.023
S1         202280.620           544480.864
S1         202280.713           544470.696
S1         202280.770           544468.840
S1         202287.685           544468.992
S1         202323.122           544469.671
S1         202326.515           544469.717
S1         202326.369           544488.681
S1         202325.783           544549.264
S1         202325.631           544560.572
S1         202329.385           544560.572
S1         202329.931           544516.503
S1         202329.803           544501.134
S1         202330.121           544492.763
S1         202330.330           544469.622
S1         202353.060           544470.146
S1         202363.962           544484.835
S1         202364.154           544485.382
S1         202364.436           544486.359
S1         202366.295           544518.409
S1         202364.160           544560.572
S1         202374.153           544560.572
S1         202374.191           544557.136
S1         202372.143           544538.787
S1         202374.106           544469.990
S1         202407.402           544471.149
S1         202408.318           544471.393
S1         202409.023           544471.966
S1         202409.629           544472.490
S1         202410.116           544474.342
S1         202409.928           544500.438
S1         202409.494           544560.572
S1         202464.005           544560.572
S1         202462.886           544467.726
S1         202503.990           544468.346
S1         202507.473           544471.911
S1         202507.466           544472.164
S1         202507.229           544491.526
S1         202506.886           544530.746
S1         202506.520           544560.572
S1         202514.493           544560.572
S1         202514.931           544521.815
S1         202518.479           544518.421
S1         202544.007           544519.047
S1         202551.368           544519.275
S1         202554.775           544522.860
S1         202554.484           544547.213
S1         202554.301           544560.572
S1         202557.305           544560.572
S1         202557.704           544530.000
S1         202557.764           544526.264
S1         202557.821           544522.926
S1         202561.352           544519.517
S1         202606.494           544520.691
S1         202645.255           544521.695
S1         202648.909           544525.328
S1         202648.796           544543.031
S1         202648.545           544547.328
S1         202647.990           544549.881
S1         202647.434           544551.526
S1         202647.186           544552.318
S1         202646.537           544553.709
S1         202646.005           544554.851
S1         202645.617           544555.487
S1         202645.290           544556.060
S1         202644.972           544556.546
S1         202643.993           544557.934
S1         202642.050           544559.960
S1         202641.414           544560.572
S1         202649.442           544560.572
S1         202649.800           544560.067
S1         202651.256           544557.723
S1         202652.037           544556.244
S1         202652.695           544554.766
S1         202653.198           544553.429
S1         202654.104           544550.253
S1         202659.285           544548.014
S1         202671.911           544560.572
S1         202684.051           544560.572
S1         202684.191           544553.158
S1         202686.455           544417.409
S1         202688.616           544415.303
S1         202738.951           544416.268
S1         202738.951           544408.240
S1         202661.232           544406.796
S1         202657.738           544403.202
S1         202658.039           544383.946
S1         202660.922           544381.109
S1         202717.673           544382.215
S1         202738.951           544382.610
S1         202738.951           544378.587
S1         202716.774           544378.165
S1         202661.035           544377.044
S1         202658.268           544374.374
S1         202658.526           544354.472
S1         202661.522           544351.523
S1         202678.399           544351.838
S1         202697.801           544352.163
S1         202717.101           544352.570
S1         202732.941           544352.952
S1         202738.951           544353.051
S1         202738.951           544347.958
S1         202730.447           544347.801
S1         202661.545           544346.606
S1         202658.700           544343.527
S1         202659.394           544309.012
S1         202659.394           544309.012
S1         202659.459           544309.014
S1         202684.678           544309.458
S1         202738.951           544310.502
S1         202738.951           544260.505
S1         202688.953           544259.528
S1         202688.335           544259.513
S1         202688.945           544218.678
S1         202689.671           544171.392
S1         202690.118           544140.227
S1         202690.549           544111.050
S1         202690.737           544095.969
S1         202694.347           544092.505
S1         202695.669           544092.495
S1         202738.951           544093.176
S1         202738.951           544085.157
S1         202694.292           544084.465
S1         202690.839           544080.885
S1         202691.126           544053.872
S1         202693.234           544051.934
S1         202738.951           544052.600
S1         202738.951           544048.590
S1         202693.225           544047.940
S1         202691.212           544045.792
S1         202691.496           544019.097
S1         202693.652           544017.060
S1         202722.533           544017.424
S1         202722.597           544013.443
S1         202693.676           544013.061
S1         202691.580           544011.183
S1         202692.153           543957.264
S1         202694.307           543955.214
S1         202727.563           543955.873
S1         202728.401           543901.325
S1         202730.661           543899.204
S1         202738.951           543899.180
S1         202738.951           543891.435
S1         202714.176           543890.850
S1         202698.040           543890.442
S1         202694.698           543886.889
S1         202695.281           543844.153
S1         202697.434           543842.059
S1         202715.814           543842.121
S1         202715.867           543838.111
S1         202697.433           543838.036
S1         202695.394           543835.877
S1         202695.746           543810.140
S1         202697.872           543808.312
S1         202714.292           543808.654
S1         202714.356           543804.674
S1         202697.955           543804.291
S1         202695.857           543801.993
S1         202696.143           543781.083
S1         202696.149           543781.237
S1         202698.306           543779.122
S1         202709.541           543779.290
S1         202711.690           543781.401
S1         202711.770           543773.125
S1         202709.671           543775.219
S1         202698.370           543775.141
S1         202696.254           543772.927
S1         202696.572           543749.655
S1         202700.110           543745.822
S1         202738.951           543746.711
S1         202738.951           543743.022
S1         202700.231           543742.161
S1         202696.724           543738.515
S1         202697.134           543708.506
S1         202738.951           543709.128
S1         202738.951           543689.129
S1         202623.430           543687.425
S1         202625.305           543560.572
S1         202615.329           543560.572
S1         202613.439           543687.278
S1         202548.182           543686.315
S1         202544.660           543682.720
S1         202546.441           543560.572
S1         202542.477           543560.572
S1         202540.671           543682.588
S1         202537.125           543686.152
S1         202480.032           543685.309
S1         202473.038           543678.380
S1         202473.038           543678.379
S1         202474.470           543581.685
S1         202474.783           543560.572
S1         202428.083           543560.572
S1         202425.598           543675.785
S1         202414.261           543683.721
S1         202407.129           543683.527
S1         202361.010           543683.531
S1         202361.143           543668.278
S1         202361.123           543625.538
S1         202360.944           543587.218
S1         202361.567           543560.572
S1         202357.086           543560.572
S1         202356.114           543624.933
S1         202355.167           543683.310